
 ========== TRANSLATION TO MODFLOW6 ==========



 >>>>> Testing Layer Elevations <<<<<
     0 ERRORS,   0 WARNINGS

 >>>>> Testing Layer Elevations <<<<<
     0 ERRORS,   0 WARNINGS

 >>>>> Translating MFSIM.NAM file <<<<<


 >>>>> Translating IMS Solver file FLOW <<<<<


 >>>>> Translating Discretization Package for Normal Grid <<<<<


 >>>>> Translating Time Discretication file <<<<<


 >>>>> Testing Layer Elevations <<<<<
     0 ERRORS,   0 WARNINGS

 >>>>> Translating Initial Condition file <<<<<


 >>>>> Translating Output Control file <<<<<


 >>>>> Translating Node Property Flow (NPF) file <<<<<


 >>>>> Translating Drain Package input file <<<<<


 >>>>> Translating Recharge Package input file <<<<<
